Circuit: * C:\Users\psmus\OneDrive\Documents\LTspiceXVII\Draft1.asc

Limiting rise time of source v2 to 0.01
Limiting fall time of source v2 to 0.01
u1:vx1: Missing value, assumed 0V @ DC
Direct Newton iteration for .op point succeeded.



Date: Mon Jan 07 14:26:30 2019
Total elapsed time: 0.503 seconds.

tnom = 27
temp = 27
method = modified trap
totiter = 87602
traniter = 87576
tranpoints = 23600
accept = 17383
rejected = 6217
matrix size = 79
fillins = 61
solver = Normal
Matrix Compiler1: 6.83 KB object code size  1.1/0.5/[0.2]
Matrix Compiler2: 7.16 KB object code size  0.5/0.7/[0.2]

