Circuit: * C:\Users\psmus\OneDrive\Documents\LTspiceXVII\Draft4.asc

Limiting rise time of source v5 to 1e-005
Limiting fall time of source v5 to 1e-005
u1:vx1: Missing value, assumed 0V @ DC
Direct Newton iteration for .op point succeeded.


Measurement "oc" FAIL'ed


Date: Mon Jan 07 21:48:22 2019
Total elapsed time: 0.062 seconds.

tnom = 27
temp = 27
method = trap
totiter = 28
traniter = 0
tranpoints = 0
accept = 0
rejected = 0
matrix size = 75
fillins = 47
solver = Normal
Matrix Compiler1:     334 opcodes
Matrix Compiler2: 6.55 KB object code size
