Circuit: * C:\Users\psmus\OneDrive\Documents\LTspiceXVII\Draft2.asc

Limiting rise time of source v5 to 0.0001
Limiting fall time of source v5 to 0.0001
WARNING: Specified period is not longer than the sum of Trise, Tfall, and Ton for v2.  Increasing period to 0.4
Limiting fall time of source v2 to 8.04912e-017
Limiting rise time of source v1 to 0.0001
Limiting fall time of source v1 to 0.0001
u1:vx1: Missing value, assumed 0V @ DC
Direct Newton iteration failed to find .op point.  (Use ".option noopiter" to skip.)
Starting Gmin stepping
Gmin = 10
Gmin = 1.07374
Gmin = 0.115292
Gmin = 0.0123794
Gmin = 0.00132923
Gmin = 0.000142725
Gmin = 1.5325e-005
Gmin = 1.6455e-006
Gmin = 1.76685e-007
Gmin = 1.89714e-008
Gmin = 2.03704e-009
Gmin = 2.18725e-010
Gmin = 2.34854e-011
Gmin = 2.52173e-012
Gmin = 2.70769e-013
Gmin = 0
Gmin stepping succeeded in finding the operating point.



Measurement "oc" FAIL'ed


Date: Mon Jan 07 20:44:28 2019
Total elapsed time: 0.159 seconds.

tnom = 27
temp = 27
method = trap
totiter = 467
traniter = 0
tranpoints = 0
accept = 0
rejected = 0
matrix size = 82
fillins = 64
solver = Normal
Matrix Compiler1:     403 opcodes
Matrix Compiler2: 7.38 KB object code size  0.5/0.7/[0.4]

