Circuit: * E:\Dropbox\PSYNTH\Simulation\Draft1.asc

Direct Newton iteration for .op point succeeded.

Date: Fri Feb 01 12:32:56 2019
Total elapsed time: 0.042 seconds.

tnom = 27
temp = 27
method = modified trap
totiter = 74
traniter = 68
tranpoints = 35
accept = 35
rejected = 0
matrix size = 4
fillins = 0
solver = Normal
Matrix Compiler1: 136 bytes object code size
Matrix Compiler2: 276 bytes object code size
