Circuit: * E:\Dropbox\PSYNTH\Simulation\P-Channel JFET compressor.asc

WARNING: Specified period is not longer than the sum of Trise, Tfall, and Ton for v2.  Increasing period to 0.4
Limiting fall time of source v2 to 8.04912e-017
Limiting rise time of source v1 to 0.0001
Limiting fall time of source v1 to 0.0001
u1:vx1: Missing value, assumed 0V @ DC
Direct Newton iteration for .op point succeeded.



Date: Tue Jan 08 18:40:32 2019
Total elapsed time: 2.664 seconds.

tnom = 27
temp = 27
method = modified trap
totiter = 407151
traniter = 407123
tranpoints = 159615
accept = 115992
rejected = 43623
matrix size = 78
fillins = 61
solver = Normal
Matrix Compiler1: 6.89 KB object code size  1.0/0.6/[0.3]
Matrix Compiler2: 7.06 KB object code size  0.4/0.6/[0.3]

